**********************************************************************
*
*  Copyright (c) International Rectifier
*
*  IPS6011/21/31/41: High side switch
*   
*  Ports 
*
*    GND: Logic Ground 
*    IN:  Logic input
*    VCC: Power supply
*    Dg:  Diagnosis output
*    OUT: Power output
*    Tj:  Junction temperature
*    Tcase: Case temperature Volt=°C
*    Tambiant: Ambiant temperature Volt=°C
*
*  Created by Pspice Version 7 
*
*  Date Created: 06/2006
*
**********************************************************************
*
* IMPORTANT NOTICE
*
* This SPICE model can not be used as a specification for any parameters. The
* limits are only guanranteed by the datasheet.  It is designed as an additional
* tool. It shall not substitute to the regular engineering practice of building
* prototypes, doing worst-case analysis and electrical validation.
*
* International Rectifier reserves the right at any time without notice, to 
* update model information. The models are provided as is, without warranty of 
* any kind, expressed or implied by IR. Visit specific product pages for 
* additional information about technical information including datasheet, 
* availability, etc. 
*
***********************************************************************
*
*  This model simulates the thermal behavior of only the Rdson. A voltage 
* coresponding to the ambiant temperature must be applied on Tambiant pin.
* A 1Gohm resistor must be connected between Tj/Tcase and Tabmiant and Tcase.
* The thermal model used is the standard mounting : TO220 free air and D2Pack
* and Dpak standard footprint (see datasheet ). If a heat sink is used, its 
* thermal model should be connected between Tambiant and Tcase. 
* If the user do not used the thermal behavior, 25V should be connected to Tj,
* Tcase and Tambiant.
* 
***********************************************************************


*************************************************************************************
*                  IR IPS6011 TO220 Rth=50°C/W
*************************************************************************************
.subckt  IPS6011 GND IN VCC DG OUT Tj Tcase Tambiant

*** components model


* Schematics Netlist *


R_R2         $N_0002 $N_0001  0.068  
C_C1         Tambiant $N_0002  600u IC=0 
C_C2         Tambiant $N_0001  7.5m IC=0 
C_C3         Tambiant $N_0003  180m IC=0 
C_C4         Tambiant $N_0004  60m IC=0 
C_C5         Tambiant Tcase  800m IC=0 
C_C6         Tambiant $N_0005  8  
R_R7         Tambiant $N_0005  25  
E_E1         $N_0006 0 VALUE { V($N_0007, $N_0008)*1000 }
R_R9         $N_0009 $N_0007  1k  
E_ABM1         $N_0010 0 VALUE { I(V_Iout)    }
E_E2         $N_0011 Out TABLE { V($N_0012, 0) } 
+ ( (0,0) (6,6) )
G_ABMI1         Tambiant Tj VALUE { (V(Vcc)-V(Out))*I(V_Isense)    }
E_E3         Vcc $N_0013 TABLE { ((V(Tj, 0)-25)*70.4u+3.6m)*I(V_Isense) } 
+ ( (-15,-15) (15,15) )
R_R1         Tj $N_0002  0.007  
R_R3         $N_0001 $N_0003  0.96  
R_R4         $N_0003 $N_0004  0.25  
R_R5         $N_0004 Tcase  0.2  
R_R6         $N_0005 Tcase  25  
V_Iout         $N_0014 $N_0015 0V
R_R11         $N_0006 $N_0012  1k  
M_M1         DG $N_0038 GND_Int GND_Int  ENH  L={2*1u} W={93*1u} AD={93*7p} PD=
+ {93*2u+13u} AS={93*7p} PS={93*2u+13u}
C_Hyst_IN_C1         GND_Int $N_0020  10p  
E_Hyst_IN_E1         $N_0021 GND_Int TABLE { V($N_0020, GND_Int) } 
+ ( (0,2.5) (1,2) )
E_Hyst_IN_E2         Logic_IN1 GND_Int TABLE { V(IN, $N_0021) } 
+ ( (-10m,0) (10m,1) )
R_Hyst_IN_R1         Logic_IN1 $N_0020  500  
E_E4         $N_0009 0 VALUE { V($N_0039, GND_Int)*25m }
G_ABM2I1         Vcc GND_Int VALUE { (V(Logic_IN1)-V(GND_Int))*2.2mA    }
E_U_V_E2         $N_0040 GND_Int TABLE { V(Vcc, $N_0022) } 
+ ( (-100,0)(-0.01,0) (0.01,1)(100,1) )
E_U_V_E1         $N_0023 GND TABLE { V($N_0024, GND) } 
+ ( (0,4) (1,4.5) )
R_U_V_R1         $N_0040 $N_0024  500  
C_U_V_C1         GND $N_0024  10p  
R_U_V_R2         $N_0023 $N_0022  1000  
C_U_V_C2         GND $N_0022  10p  
E_OverT_E2         Logic_Tj1 GND_Int TABLE { V(Tj, $N_0025) } 
+ ( (-100,0)(-0.01,0) (0.01,1)(100,1) )
E_OverT_E1         $N_0026 0 TABLE { V($N_0027, 0) } 
+ ( (0,165) (1,158) )
R_OverT_R1         Logic_Tj1 $N_0027  500  
C_OverT_C1         0 $N_0027  10p  
R_OverT_R2         $N_0026 $N_0025  1k  
C_OverT_C2         0 $N_0025  1n  
V_Isense         $N_0016 Out 0V
D_Clamp_40V_D5         $N_0028 $N_0029 DZ6V_P3 
D_Clamp_40V_D4         $N_0030 $N_0028 DZ6V_P3 
D_Clamp_40V_D2         $N_0031 $N_0032 DZ6V_P3 
D_Clamp_40V_D3         $N_0032 $N_0030 DZ6V_P3 
D_Clamp_40V_D1         $N_0033 $N_0031 DZ6V_P3 
D_Clamp_40V_D6         $N_0029 Vcc DZ6V_P3 
D_Clamp_40V_D7         $N_0033 $N_0034 DPOLY 
R_R8         GND Vcc  5600k  
R_R10         $N_0010 $N_0008  100  
R_R12         $N_0011 $N_0017  1.5k  
R_R13         Out $N_0015  8  
R_R14         $N_0011 $N_0034  1.5k  
R_R15         $N_0018 $N_0034  100k  
R_R16         GND_Int IN  150K  
M_M2         GND $N_0019 GND_Int GND_Int  ENH  L={2*1u} W={263*1u} AD={263*7p}
+  PD={263*2u+13u} AS={263*7p} PS={263*2u+13u}
R_R17         $N_0019 Vcc  1000k  
X_HS2         $N_0013 $N_0034 $N_0016 mosp3 PARAMS:sur=7.5
X_HS1         $N_0013 $N_0017 $N_0014 mosp3 PARAMS:sur=3.29m
D_D1         Out $N_0011 DZ6V_P3 
D_D2         GND $N_0018 DZ43V_P3 
D_D3         $N_0016 $N_0013 DZ43V_P3 
D_D4         GND_Int IN D_ESD_P3 
D_D5         GND_Int DG DZ6V_P3 
C_C7         0 $N_0007  50n  
C_C8         0 $N_0008  1n  
C_C9         0 $N_0012  2n  
E_OpL_Off_E1         Logic_OpL_Off GND_Int TABLE { V(Out, GND_Int) } 
+ ( (2.99,0)(3.01,1) )
E_S_C_E1         Logic_S_C GND_Int TABLE { V(Vcc, Out) } 
+ ( (2.99,0)(3.01,1) )
E_OpL_On_E1         Logic_OpL_On GND_Int TABLE { V(Vcc, Out) } 
+ ( (0.0199,1) (0.020,0) )
R_R18         GND_Int Out  800k  
E_Logic_E5         $N_0037 GND_Int VALUE 
+ {V($N_0035,GND_Int)+V($N_0036,GND_Int)}
E_Logic_E2         $N_0038 GND_Int TABLE { V($N_0037, GND_Int) } 
+ ( (0.5,0) (0.9,4.8) )
E_Logic_E1         $N_0035 GND_Int VALUE { V(Logic_IN1,
+  GND_Int)*V(Logic_Tj1)+V(Logic_OpL_Off)*(1-V(Logic_IN1)) }
R_Logic_R2         GND_Int Logic_IN1  10000k  
R_Logic_R6         GND_Int Logic_OpL_On  10000k  
R_Logic_R5         GND_Int Logic_S_C  10000k  
E_Logic_E3         $N_0039 GND_Int VALUE { (V($N_0040,
+  GND_Int)*V(Logic_IN1)*(1-V(Logic_Tj1))) }
E_Logic_E4         $N_0036 GND_Int VALUE { V(Logic_S_C,
+  GND_Int)*V(Logic_IN1)+V(Logic_OpL_On)*V(Logic_IN1) }
R_Logic_R1         GND_Int $N_0040  10000k  
R_Logic_R3         GND_Int Logic_OpL_Off  10000k  
R_Logic_R4         GND_Int Logic_Tj1  10000k  
D_D6         GND_Int Vcc DZ43V_P3 


.ends

*************************************************************************************
*                  IR IPS6011S D2Pak Rth=50°C/W
*************************************************************************************
.subckt  IPS6011S GND IN VCC DG OUT Tj Tcase Tambiant

*** components model

* Schematics Netlist *



R_R2         $N_0002 $N_0001  0.068  
C_C1         Tambiant $N_0002  600u IC=0 
C_C2         Tambiant $N_0001  7.5m IC=0 
C_C3         Tambiant $N_0003  180m IC=0 
C_C4         Tambiant $N_0004  60m IC=0 
C_C5         Tambiant Tcase  800m IC=0 
C_C6         Tambiant $N_0005  8  
R_R7         Tambiant $N_0005  25  
E_E1         $N_0006 0 VALUE { V($N_0007, $N_0008)*1000 }
R_R9         $N_0009 $N_0007  1k  
E_ABM1         $N_0010 0 VALUE { I(V_Iout)    }
E_E2         $N_0011 Out TABLE { V($N_0012, 0) } 
+ ( (0,0) (6,6) )
G_ABMI1         Tambiant Tj VALUE { (V(Vcc)-V(Out))*I(V_Isense)    }
E_E3         Vcc $N_0013 TABLE { ((V(Tj, 0)-25)*70.4u+3.6m)*I(V_Isense) } 
+ ( (-15,-15) (15,15) )
R_R1         Tj $N_0002  0.007  
R_R3         $N_0001 $N_0003  0.96  
R_R4         $N_0003 $N_0004  0.25  
R_R5         $N_0004 Tcase  0.2  
R_R6         $N_0005 Tcase  25  
V_Iout         $N_0014 $N_0015 0V
R_R11         $N_0006 $N_0012  1k  
M_M1         DG $N_0038 GND_Int GND_Int  ENH  L={2*1u} W={93*1u} AD={93*7p} PD=
+ {93*2u+13u} AS={93*7p} PS={93*2u+13u}
C_Hyst_IN_C1         GND_Int $N_0020  10p  
E_Hyst_IN_E1         $N_0021 GND_Int TABLE { V($N_0020, GND_Int) } 
+ ( (0,2.5) (1,2) )
E_Hyst_IN_E2         Logic_IN1 GND_Int TABLE { V(IN, $N_0021) } 
+ ( (-10m,0) (10m,1) )
R_Hyst_IN_R1         Logic_IN1 $N_0020  500  
E_E4         $N_0009 0 VALUE { V($N_0039, GND_Int)*25m }
G_ABM2I1         Vcc GND_Int VALUE { (V(Logic_IN1)-V(GND_Int))*2.2mA    }
E_U_V_E2         $N_0040 GND_Int TABLE { V(Vcc, $N_0022) } 
+ ( (-100,0)(-0.01,0) (0.01,1)(100,1) )
E_U_V_E1         $N_0023 GND TABLE { V($N_0024, GND) } 
+ ( (0,4) (1,4.5) )
R_U_V_R1         $N_0040 $N_0024  500  
C_U_V_C1         GND $N_0024  10p  
R_U_V_R2         $N_0023 $N_0022  1000  
C_U_V_C2         GND $N_0022  10p  
E_OverT_E2         Logic_Tj1 GND_Int TABLE { V(Tj, $N_0025) } 
+ ( (-100,0)(-0.01,0) (0.01,1)(100,1) )
E_OverT_E1         $N_0026 0 TABLE { V($N_0027, 0) } 
+ ( (0,165) (1,158) )
R_OverT_R1         Logic_Tj1 $N_0027  500  
C_OverT_C1         0 $N_0027  10p  
R_OverT_R2         $N_0026 $N_0025  1k  
C_OverT_C2         0 $N_0025  1n  
V_Isense         $N_0016 Out 0V
D_Clamp_40V_D5         $N_0028 $N_0029 DZ6V_P3 
D_Clamp_40V_D4         $N_0030 $N_0028 DZ6V_P3 
D_Clamp_40V_D2         $N_0031 $N_0032 DZ6V_P3 
D_Clamp_40V_D3         $N_0032 $N_0030 DZ6V_P3 
D_Clamp_40V_D1         $N_0033 $N_0031 DZ6V_P3 
D_Clamp_40V_D6         $N_0029 Vcc DZ6V_P3 
D_Clamp_40V_D7         $N_0033 $N_0034 DPOLY 
R_R8         GND Vcc  5600k  
R_R10         $N_0010 $N_0008  100  
R_R12         $N_0011 $N_0017  1.5k  
R_R13         Out $N_0015  8  
R_R14         $N_0011 $N_0034  1.5k  
R_R15         $N_0018 $N_0034  100k  
R_R16         GND_Int IN  150K  
M_M2         GND $N_0019 GND_Int GND_Int  ENH  L={2*1u} W={263*1u} AD={263*7p}
+  PD={263*2u+13u} AS={263*7p} PS={263*2u+13u}
R_R17         $N_0019 Vcc  1000k  
X_HS2         $N_0013 $N_0034 $N_0016 mosp3 PARAMS:sur=7.5
X_HS1         $N_0013 $N_0017 $N_0014 mosp3 PARAMS:sur=3.29m
D_D1         Out $N_0011 DZ6V_P3 
D_D2         GND $N_0018 DZ43V_P3 
D_D3         $N_0016 $N_0013 DZ43V_P3 
D_D4         GND_Int IN D_ESD_P3 
D_D5         GND_Int DG DZ6V_P3 
C_C7         0 $N_0007  50n  
C_C8         0 $N_0008  1n  
C_C9         0 $N_0012  2n  
E_OpL_Off_E1         Logic_OpL_Off GND_Int TABLE { V(Out, GND_Int) } 
+ ( (2.99,0)(3.01,1) )
E_S_C_E1         Logic_S_C GND_Int TABLE { V(Vcc, Out) } 
+ ( (2.99,0)(3.01,1) )
E_OpL_On_E1         Logic_OpL_On GND_Int TABLE { V(Vcc, Out) } 
+ ( (0.0199,1) (0.020,0) )
R_R18         GND_Int Out  800k  
E_Logic_E5         $N_0037 GND_Int VALUE 
+ {V($N_0035,GND_Int)+V($N_0036,GND_Int)}
E_Logic_E2         $N_0038 GND_Int TABLE { V($N_0037, GND_Int) } 
+ ( (0.5,0) (0.9,4.8) )
E_Logic_E1         $N_0035 GND_Int VALUE { V(Logic_IN1,
+  GND_Int)*V(Logic_Tj1)+V(Logic_OpL_Off)*(1-V(Logic_IN1)) }
R_Logic_R2         GND_Int Logic_IN1  10000k  
R_Logic_R6         GND_Int Logic_OpL_On  10000k  
R_Logic_R5         GND_Int Logic_S_C  10000k  
E_Logic_E3         $N_0039 GND_Int VALUE { (V($N_0040,
+  GND_Int)*V(Logic_IN1)*(1-V(Logic_Tj1))) }
E_Logic_E4         $N_0036 GND_Int VALUE { V(Logic_S_C,
+  GND_Int)*V(Logic_IN1)+V(Logic_OpL_On)*V(Logic_IN1) }
R_Logic_R1         GND_Int $N_0040  10000k  
R_Logic_R3         GND_Int Logic_OpL_Off  10000k  
R_Logic_R4         GND_Int Logic_Tj1  10000k  
D_D6         GND_Int Vcc DZ43V_P3

.ends

*************************************************************************************
*                  IR IPS6011R DPak Rth=50°C/W
*************************************************************************************
.subckt  IPS6011R GND IN VCC DG OUT Tj Tcase Tambiant

*** components model

* Schematics Netlist *



R_R2         $N_0002 $N_0001  0.068  
C_C1         Tambiant $N_0002  600u IC=0 
C_C2         Tambiant $N_0001  7.5m IC=0 
C_C3         Tambiant $N_0003  180m IC=0 
C_C4         Tambiant $N_0004  60m IC=0 
C_C5         Tambiant Tcase  800m IC=0 
C_C6         Tambiant $N_0005  8  
R_R7         Tambiant $N_0005  25  
E_E1         $N_0006 0 VALUE { V($N_0007, $N_0008)*1000 }
R_R9         $N_0009 $N_0007  1k  
E_ABM1         $N_0010 0 VALUE { I(V_Iout)    }
E_E2         $N_0011 Out TABLE { V($N_0012, 0) } 
+ ( (0,0) (6,6) )
G_ABMI1         Tambiant Tj VALUE { (V(Vcc)-V(Out))*I(V_Isense)    }
E_E3         Vcc $N_0013 TABLE { ((V(Tj, 0)-25)*70.4u+3.6m)*I(V_Isense) } 
+ ( (-15,-15) (15,15) )
R_R1         Tj $N_0002  0.007  
R_R3         $N_0001 $N_0003  0.96  
R_R4         $N_0003 $N_0004  0.25  
R_R5         $N_0004 Tcase  0.2  
R_R6         $N_0005 Tcase  25  
V_Iout         $N_0014 $N_0015 0V
R_R11         $N_0006 $N_0012  1k  
M_M1         DG $N_0038 GND_Int GND_Int  ENH  L={2*1u} W={93*1u} AD={93*7p} PD=
+ {93*2u+13u} AS={93*7p} PS={93*2u+13u}
C_Hyst_IN_C1         GND_Int $N_0020  10p  
E_Hyst_IN_E1         $N_0021 GND_Int TABLE { V($N_0020, GND_Int) } 
+ ( (0,2.5) (1,2) )
E_Hyst_IN_E2         Logic_IN1 GND_Int TABLE { V(IN, $N_0021) } 
+ ( (-10m,0) (10m,1) )
R_Hyst_IN_R1         Logic_IN1 $N_0020  500  
E_E4         $N_0009 0 VALUE { V($N_0039, GND_Int)*25m }
G_ABM2I1         Vcc GND_Int VALUE { (V(Logic_IN1)-V(GND_Int))*2.2mA    }
E_U_V_E2         $N_0040 GND_Int TABLE { V(Vcc, $N_0022) } 
+ ( (-100,0)(-0.01,0) (0.01,1)(100,1) )
E_U_V_E1         $N_0023 GND TABLE { V($N_0024, GND) } 
+ ( (0,4) (1,4.5) )
R_U_V_R1         $N_0040 $N_0024  500  
C_U_V_C1         GND $N_0024  10p  
R_U_V_R2         $N_0023 $N_0022  1000  
C_U_V_C2         GND $N_0022  10p  
E_OverT_E2         Logic_Tj1 GND_Int TABLE { V(Tj, $N_0025) } 
+ ( (-100,0)(-0.01,0) (0.01,1)(100,1) )
E_OverT_E1         $N_0026 0 TABLE { V($N_0027, 0) } 
+ ( (0,165) (1,158) )
R_OverT_R1         Logic_Tj1 $N_0027  500  
C_OverT_C1         0 $N_0027  10p  
R_OverT_R2         $N_0026 $N_0025  1k  
C_OverT_C2         0 $N_0025  1n  
V_Isense         $N_0016 Out 0V
D_Clamp_40V_D5         $N_0028 $N_0029 DZ6V_P3 
D_Clamp_40V_D4         $N_0030 $N_0028 DZ6V_P3 
D_Clamp_40V_D2         $N_0031 $N_0032 DZ6V_P3 
D_Clamp_40V_D3         $N_0032 $N_0030 DZ6V_P3 
D_Clamp_40V_D1         $N_0033 $N_0031 DZ6V_P3 
D_Clamp_40V_D6         $N_0029 Vcc DZ6V_P3 
D_Clamp_40V_D7         $N_0033 $N_0034 DPOLY 
R_R8         GND Vcc  5600k  
R_R10         $N_0010 $N_0008  100  
R_R12         $N_0011 $N_0017  1.5k  
R_R13         Out $N_0015  8  
R_R14         $N_0011 $N_0034  1.5k  
R_R15         $N_0018 $N_0034  100k  
R_R16         GND_Int IN  150K  
M_M2         GND $N_0019 GND_Int GND_Int  ENH  L={2*1u} W={263*1u} AD={263*7p}
+  PD={263*2u+13u} AS={263*7p} PS={263*2u+13u}
R_R17         $N_0019 Vcc  1000k  
X_HS2         $N_0013 $N_0034 $N_0016 mosp3 PARAMS:sur=7.5
X_HS1         $N_0013 $N_0017 $N_0014 mosp3 PARAMS:sur=3.29m
D_D1         Out $N_0011 DZ6V_P3 
D_D2         GND $N_0018 DZ43V_P3 
D_D3         $N_0016 $N_0013 DZ43V_P3 
D_D4         GND_Int IN D_ESD_P3 
D_D5         GND_Int DG DZ6V_P3 
C_C7         0 $N_0007  50n  
C_C8         0 $N_0008  1n  
C_C9         0 $N_0012  2n  
E_OpL_Off_E1         Logic_OpL_Off GND_Int TABLE { V(Out, GND_Int) } 
+ ( (2.99,0)(3.01,1) )
E_S_C_E1         Logic_S_C GND_Int TABLE { V(Vcc, Out) } 
+ ( (2.99,0)(3.01,1) )
E_OpL_On_E1         Logic_OpL_On GND_Int TABLE { V(Vcc, Out) } 
+ ( (0.0199,1) (0.020,0) )
R_R18         GND_Int Out  800k  
E_Logic_E5         $N_0037 GND_Int VALUE 
+ {V($N_0035,GND_Int)+V($N_0036,GND_Int)}
E_Logic_E2         $N_0038 GND_Int TABLE { V($N_0037, GND_Int) } 
+ ( (0.5,0) (0.9,4.8) )
E_Logic_E1         $N_0035 GND_Int VALUE { V(Logic_IN1,
+  GND_Int)*V(Logic_Tj1)+V(Logic_OpL_Off)*(1-V(Logic_IN1)) }
R_Logic_R2         GND_Int Logic_IN1  10000k  
R_Logic_R6         GND_Int Logic_OpL_On  10000k  
R_Logic_R5         GND_Int Logic_S_C  10000k  
E_Logic_E3         $N_0039 GND_Int VALUE { (V($N_0040,
+  GND_Int)*V(Logic_IN1)*(1-V(Logic_Tj1))) }
E_Logic_E4         $N_0036 GND_Int VALUE { V(Logic_S_C,
+  GND_Int)*V(Logic_IN1)+V(Logic_OpL_On)*V(Logic_IN1) }
R_Logic_R1         GND_Int $N_0040  10000k  
R_Logic_R3         GND_Int Logic_OpL_Off  10000k  
R_Logic_R4         GND_Int Logic_Tj1  10000k  
D_D6         GND_Int Vcc DZ43V_P3

.ends

*************************************************************************************
*                  IR IPS6021 TO220 Rth=50°C/W
*************************************************************************************
.subckt  IPS6021 GND IN VCC DG OUT Tj Tcase Tambiant

*** components model

* Schematics Netlist *



C_C6         Tambiant $N_0001  8  
R_R7         Tambiant $N_0001  25  
E_E1         $N_0002 0 VALUE { V($N_0003, $N_0004)*1000 }
R_R9         $N_0005 $N_0003  1k  
E_ABM1         $N_0006 0 VALUE { I(V_Iout)*1.3    }
E_E2         $N_0007 Out TABLE { V($N_0008, 0) } 
+ ( (0,0) (6,6) )
G_ABMI1         Tambiant Tj VALUE { (V(Vcc)-V(Out))*I(V_Isense)    }
R_R6         $N_0001 Tcase  25  
V_Iout         $N_0009 $N_0010 0V
R_R11         $N_0002 $N_0008  1k  
M_M1         DG $N_0038 GND_Int GND_Int  ENH  L={2*1u} W={93*1u} AD={93*7p} PD=
+ {93*2u+13u} AS={93*7p} PS={93*2u+13u}
C_Hyst_IN_C1         GND_Int $N_0020  10p  
E_Hyst_IN_E1         $N_0021 GND_Int TABLE { V($N_0020, GND_Int) } 
+ ( (0,2.5) (1,2) )
E_Hyst_IN_E2         Logic_IN1 GND_Int TABLE { V(IN, $N_0021) } 
+ ( (-10m,0) (10m,1) )
R_Hyst_IN_R1         Logic_IN1 $N_0020  500  
G_ABM2I1         Vcc GND_Int VALUE { (V(Logic_IN1)-V(GND_Int))*2.2mA    }
E_U_V_E2         $N_0040 GND_Int TABLE { V(Vcc, $N_0022) } 
+ ( (-100,0)(-0.01,0) (0.01,1)(100,1) )
E_U_V_E1         $N_0023 GND TABLE { V($N_0024, GND) } 
+ ( (0,4) (1,4.5) )
R_U_V_R1         $N_0040 $N_0024  500  
C_U_V_C1         GND $N_0024  10p  
R_U_V_R2         $N_0023 $N_0022  1000  
C_U_V_C2         GND $N_0022  10p  
E_OverT_E2         Logic_Tj1 GND_Int TABLE { V(Tj, $N_0025) } 
+ ( (-100,0)(-0.01,0) (0.01,1)(100,1) )
E_OverT_E1         $N_0026 0 TABLE { V($N_0027, 0) } 
+ ( (0,165) (1,158) )
R_OverT_R1         Logic_Tj1 $N_0027  500  
C_OverT_C1         0 $N_0027  10p  
R_OverT_R2         $N_0026 $N_0025  1k  
C_OverT_C2         0 $N_0025  1n  
V_Isense         $N_0011 Out 0V
D_Clamp_40V_D5         $N_0028 $N_0029 DZ6V_P3 
D_Clamp_40V_D4         $N_0030 $N_0028 DZ6V_P3 
D_Clamp_40V_D2         $N_0031 $N_0032 DZ6V_P3 
D_Clamp_40V_D3         $N_0032 $N_0030 DZ6V_P3 
D_Clamp_40V_D1         $N_0033 $N_0031 DZ6V_P3 
D_Clamp_40V_D6         $N_0029 Vcc DZ6V_P3 
D_Clamp_40V_D7         $N_0033 $N_0034 DPOLY 
R_R8         GND Vcc  5600k  
R_R10         $N_0006 $N_0004  100  
R_R12         $N_0007 $N_0012  1.5k  
R_R14         $N_0007 $N_0034  1.5k  
R_R15         $N_0013 $N_0034  100k  
R_R16         GND_Int IN  150K  
M_M2         GND $N_0014 GND_Int GND_Int  ENH  L={2*1u} W={263*1u} AD={263*7p}
+  PD={263*2u+13u} AS={263*7p} PS={263*2u+13u}
R_R17         $N_0014 Vcc  1000k  
X_HS1         $N_0015 $N_0012 $N_0009 mosp3 PARAMS:sur=3.29m
C_C8         0 $N_0004  1n  
C_C9         0 $N_0008  2n  
E_OpL_Off_E1         Logic_OpL_Off GND_Int TABLE { V(Out, GND_Int) } 
+ ( (2.99,0)(3.01,1) )
E_S_C_E1         Logic_S_C GND_Int TABLE { V(Vcc, Out) } 
+ ( (2.99,0)(3.01,1) )
E_OpL_On_E1         Logic_OpL_On GND_Int TABLE { V(Vcc, Out) } 
+ ( (0.0199,1) (0.020,0) )
R_R18         GND_Int Out  800k  
E_Logic_E5         $N_0037 GND_Int VALUE 
+ {V($N_0035,GND_Int)+V($N_0036,GND_Int)}
E_Logic_E2         $N_0038 GND_Int TABLE { V($N_0037, GND_Int) } 
+ ( (0.5,0) (0.9,4.8) )
E_Logic_E1         $N_0035 GND_Int VALUE { V(Logic_IN1,
+  GND_Int)*V(Logic_Tj1)+V(Logic_OpL_Off)*(1-V(Logic_IN1)) }
R_Logic_R2         GND_Int Logic_IN1  10000k  
R_Logic_R6         GND_Int Logic_OpL_On  10000k  
R_Logic_R5         GND_Int Logic_S_C  10000k  
E_Logic_E3         $N_0039 GND_Int VALUE { (V($N_0040,
+  GND_Int)*V(Logic_IN1)*(1-V(Logic_Tj1))) }
E_Logic_E4         $N_0036 GND_Int VALUE { V(Logic_S_C,
+  GND_Int)*V(Logic_IN1)+V(Logic_OpL_On)*V(Logic_IN1) }
R_Logic_R1         GND_Int $N_0040  10000k  
R_Logic_R3         GND_Int Logic_OpL_Off  10000k  
R_Logic_R4         GND_Int Logic_Tj1  10000k  
D_D1         Out $N_0007 DZ6V_P3 
D_D2         GND $N_0013 DZ43V_P3 
D_D3         $N_0011 $N_0015 DZ43V_P3 
D_D4         GND_Int IN D_ESD_P3 
D_D5         GND_Int DG DZ6V_P3 
D_D6         GND_Int Vcc DZ43V_P3 
E_E3         Vcc $N_0015 TABLE { ((V(Tj, 0)-25)*153.6u+6.37m)*I(V_Isense) } 
+ ( (-15,-15) (15,15) )
E_E4         $N_0005 0 VALUE { V($N_0039, GND_Int)*45m }
R_R1         Tj $N_0016  0.016  
R_R2         $N_0016 $N_0017  0.14  
R_R3         $N_0017 $N_0018  1.71  
R_R4         $N_0018 $N_0019  0.44  
R_R5         $N_0019 Tcase  0.286  
C_C1         Tambiant $N_0016  180u IC=0 
C_C2         Tambiant $N_0017  2m IC=0 
C_C3         Tambiant $N_0018  70m IC=0 
C_C4         Tambiant $N_0019  10m IC=0 
C_C5         Tambiant Tcase  350m IC=0 
X_HS2         $N_0015 $N_0034 $N_0011 mosp3 PARAMS:sur=3.15
R_R13         Out $N_0010  3.5  
C_C7         0 $N_0003  22n

.ends

*************************************************************************************
*                  IR IPS6021S D2Pak Rth=50°C/W
*************************************************************************************
.subckt  IPS6021S GND IN VCC DG OUT Tj Tcase Tambiant

*** components model

* Schematics Netlist *



C_C6         Tambiant $N_0001  8  
R_R7         Tambiant $N_0001  25  
E_E1         $N_0002 0 VALUE { V($N_0003, $N_0004)*1000 }
R_R9         $N_0005 $N_0003  1k  
E_ABM1         $N_0006 0 VALUE { I(V_Iout)*1.3    }
E_E2         $N_0007 Out TABLE { V($N_0008, 0) } 
+ ( (0,0) (6,6) )
G_ABMI1         Tambiant Tj VALUE { (V(Vcc)-V(Out))*I(V_Isense)    }
R_R6         $N_0001 Tcase  25  
V_Iout         $N_0009 $N_0010 0V
R_R11         $N_0002 $N_0008  1k  
M_M1         DG $N_0038 GND_Int GND_Int  ENH  L={2*1u} W={93*1u} AD={93*7p} PD=
+ {93*2u+13u} AS={93*7p} PS={93*2u+13u}
C_Hyst_IN_C1         GND_Int $N_0020  10p  
E_Hyst_IN_E1         $N_0021 GND_Int TABLE { V($N_0020, GND_Int) } 
+ ( (0,2.5) (1,2) )
E_Hyst_IN_E2         Logic_IN1 GND_Int TABLE { V(IN, $N_0021) } 
+ ( (-10m,0) (10m,1) )
R_Hyst_IN_R1         Logic_IN1 $N_0020  500  
G_ABM2I1         Vcc GND_Int VALUE { (V(Logic_IN1)-V(GND_Int))*2.2mA    }
E_U_V_E2         $N_0040 GND_Int TABLE { V(Vcc, $N_0022) } 
+ ( (-100,0)(-0.01,0) (0.01,1)(100,1) )
E_U_V_E1         $N_0023 GND TABLE { V($N_0024, GND) } 
+ ( (0,4) (1,4.5) )
R_U_V_R1         $N_0040 $N_0024  500  
C_U_V_C1         GND $N_0024  10p  
R_U_V_R2         $N_0023 $N_0022  1000  
C_U_V_C2         GND $N_0022  10p  
E_OverT_E2         Logic_Tj1 GND_Int TABLE { V(Tj, $N_0025) } 
+ ( (-100,0)(-0.01,0) (0.01,1)(100,1) )
E_OverT_E1         $N_0026 0 TABLE { V($N_0027, 0) } 
+ ( (0,165) (1,158) )
R_OverT_R1         Logic_Tj1 $N_0027  500  
C_OverT_C1         0 $N_0027  10p  
R_OverT_R2         $N_0026 $N_0025  1k  
C_OverT_C2         0 $N_0025  1n  
V_Isense         $N_0011 Out 0V
D_Clamp_40V_D5         $N_0028 $N_0029 DZ6V_P3 
D_Clamp_40V_D4         $N_0030 $N_0028 DZ6V_P3 
D_Clamp_40V_D2         $N_0031 $N_0032 DZ6V_P3 
D_Clamp_40V_D3         $N_0032 $N_0030 DZ6V_P3 
D_Clamp_40V_D1         $N_0033 $N_0031 DZ6V_P3 
D_Clamp_40V_D6         $N_0029 Vcc DZ6V_P3 
D_Clamp_40V_D7         $N_0033 $N_0034 DPOLY 
R_R8         GND Vcc  5600k  
R_R10         $N_0006 $N_0004  100  
R_R12         $N_0007 $N_0012  1.5k  
R_R14         $N_0007 $N_0034  1.5k  
R_R15         $N_0013 $N_0034  100k  
R_R16         GND_Int IN  150K  
M_M2         GND $N_0014 GND_Int GND_Int  ENH  L={2*1u} W={263*1u} AD={263*7p}
+  PD={263*2u+13u} AS={263*7p} PS={263*2u+13u}
R_R17         $N_0014 Vcc  1000k  
X_HS1         $N_0015 $N_0012 $N_0009 mosp3 PARAMS:sur=3.29m
C_C8         0 $N_0004  1n  
C_C9         0 $N_0008  2n  
E_OpL_Off_E1         Logic_OpL_Off GND_Int TABLE { V(Out, GND_Int) } 
+ ( (2.99,0)(3.01,1) )
E_S_C_E1         Logic_S_C GND_Int TABLE { V(Vcc, Out) } 
+ ( (2.99,0)(3.01,1) )
E_OpL_On_E1         Logic_OpL_On GND_Int TABLE { V(Vcc, Out) } 
+ ( (0.0199,1) (0.020,0) )
R_R18         GND_Int Out  800k  
E_Logic_E5         $N_0037 GND_Int VALUE 
+ {V($N_0035,GND_Int)+V($N_0036,GND_Int)}
E_Logic_E2         $N_0038 GND_Int TABLE { V($N_0037, GND_Int) } 
+ ( (0.5,0) (0.9,4.8) )
E_Logic_E1         $N_0035 GND_Int VALUE { V(Logic_IN1,
+  GND_Int)*V(Logic_Tj1)+V(Logic_OpL_Off)*(1-V(Logic_IN1)) }
R_Logic_R2         GND_Int Logic_IN1  10000k  
R_Logic_R6         GND_Int Logic_OpL_On  10000k  
R_Logic_R5         GND_Int Logic_S_C  10000k  
E_Logic_E3         $N_0039 GND_Int VALUE { (V($N_0040,
+  GND_Int)*V(Logic_IN1)*(1-V(Logic_Tj1))) }
E_Logic_E4         $N_0036 GND_Int VALUE { V(Logic_S_C,
+  GND_Int)*V(Logic_IN1)+V(Logic_OpL_On)*V(Logic_IN1) }
R_Logic_R1         GND_Int $N_0040  10000k  
R_Logic_R3         GND_Int Logic_OpL_Off  10000k  
R_Logic_R4         GND_Int Logic_Tj1  10000k  
D_D1         Out $N_0007 DZ6V_P3 
D_D2         GND $N_0013 DZ43V_P3 
D_D3         $N_0011 $N_0015 DZ43V_P3 
D_D4         GND_Int IN D_ESD_P3 
D_D5         GND_Int DG DZ6V_P3 
D_D6         GND_Int Vcc DZ43V_P3 
E_E3         Vcc $N_0015 TABLE { ((V(Tj, 0)-25)*153.6u+6.37m)*I(V_Isense) } 
+ ( (-15,-15) (15,15) )
E_E4         $N_0005 0 VALUE { V($N_0039, GND_Int)*45m }
R_R1         Tj $N_0016  0.016  
R_R2         $N_0016 $N_0017  0.14  
R_R3         $N_0017 $N_0018  1.71  
R_R4         $N_0018 $N_0019  0.44  
R_R5         $N_0019 Tcase  0.286  
C_C1         Tambiant $N_0016  180u IC=0 
C_C2         Tambiant $N_0017  2m IC=0 
C_C3         Tambiant $N_0018  70m IC=0 
C_C4         Tambiant $N_0019  10m IC=0 
C_C5         Tambiant Tcase  350m IC=0 
X_HS2         $N_0015 $N_0034 $N_0011 mosp3 PARAMS:sur=3.15
R_R13         Out $N_0010  3.5  
C_C7         0 $N_0003  22n

.ends

*************************************************************************************
*                  IR IPS6021R DPak Rth=50°C/W
*************************************************************************************
.subckt  IPS6021R GND IN VCC DG OUT Tj Tcase Tambiant

*** components model

* Schematics Netlist *



C_C6         Tambiant $N_0001  8  
R_R7         Tambiant $N_0001  25  
E_E1         $N_0002 0 VALUE { V($N_0003, $N_0004)*1000 }
R_R9         $N_0005 $N_0003  1k  
E_ABM1         $N_0006 0 VALUE { I(V_Iout)*1.3    }
E_E2         $N_0007 Out TABLE { V($N_0008, 0) } 
+ ( (0,0) (6,6) )
G_ABMI1         Tambiant Tj VALUE { (V(Vcc)-V(Out))*I(V_Isense)    }
R_R6         $N_0001 Tcase  25  
V_Iout         $N_0009 $N_0010 0V
R_R11         $N_0002 $N_0008  1k  
M_M1         DG $N_0038 GND_Int GND_Int  ENH  L={2*1u} W={93*1u} AD={93*7p} PD=
+ {93*2u+13u} AS={93*7p} PS={93*2u+13u}
C_Hyst_IN_C1         GND_Int $N_0020  10p  
E_Hyst_IN_E1         $N_0021 GND_Int TABLE { V($N_0020, GND_Int) } 
+ ( (0,2.5) (1,2) )
E_Hyst_IN_E2         Logic_IN1 GND_Int TABLE { V(IN, $N_0021) } 
+ ( (-10m,0) (10m,1) )
R_Hyst_IN_R1         Logic_IN1 $N_0020  500  
G_ABM2I1         Vcc GND_Int VALUE { (V(Logic_IN1)-V(GND_Int))*2.2mA    }
E_U_V_E2         $N_0040 GND_Int TABLE { V(Vcc, $N_0022) } 
+ ( (-100,0)(-0.01,0) (0.01,1)(100,1) )
E_U_V_E1         $N_0023 GND TABLE { V($N_0024, GND) } 
+ ( (0,4) (1,4.5) )
R_U_V_R1         $N_0040 $N_0024  500  
C_U_V_C1         GND $N_0024  10p  
R_U_V_R2         $N_0023 $N_0022  1000  
C_U_V_C2         GND $N_0022  10p  
E_OverT_E2         Logic_Tj1 GND_Int TABLE { V(Tj, $N_0025) } 
+ ( (-100,0)(-0.01,0) (0.01,1)(100,1) )
E_OverT_E1         $N_0026 0 TABLE { V($N_0027, 0) } 
+ ( (0,165) (1,158) )
R_OverT_R1         Logic_Tj1 $N_0027  500  
C_OverT_C1         0 $N_0027  10p  
R_OverT_R2         $N_0026 $N_0025  1k  
C_OverT_C2         0 $N_0025  1n  
V_Isense         $N_0011 Out 0V
D_Clamp_40V_D5         $N_0028 $N_0029 DZ6V_P3 
D_Clamp_40V_D4         $N_0030 $N_0028 DZ6V_P3 
D_Clamp_40V_D2         $N_0031 $N_0032 DZ6V_P3 
D_Clamp_40V_D3         $N_0032 $N_0030 DZ6V_P3 
D_Clamp_40V_D1         $N_0033 $N_0031 DZ6V_P3 
D_Clamp_40V_D6         $N_0029 Vcc DZ6V_P3 
D_Clamp_40V_D7         $N_0033 $N_0034 DPOLY 
R_R8         GND Vcc  5600k  
R_R10         $N_0006 $N_0004  100  
R_R12         $N_0007 $N_0012  1.5k  
R_R14         $N_0007 $N_0034  1.5k  
R_R15         $N_0013 $N_0034  100k  
R_R16         GND_Int IN  150K  
M_M2         GND $N_0014 GND_Int GND_Int  ENH  L={2*1u} W={263*1u} AD={263*7p}
+  PD={263*2u+13u} AS={263*7p} PS={263*2u+13u}
R_R17         $N_0014 Vcc  1000k  
X_HS1         $N_0015 $N_0012 $N_0009 mosp3 PARAMS:sur=3.29m
C_C8         0 $N_0004  1n  
C_C9         0 $N_0008  2n  
E_OpL_Off_E1         Logic_OpL_Off GND_Int TABLE { V(Out, GND_Int) } 
+ ( (2.99,0)(3.01,1) )
E_S_C_E1         Logic_S_C GND_Int TABLE { V(Vcc, Out) } 
+ ( (2.99,0)(3.01,1) )
E_OpL_On_E1         Logic_OpL_On GND_Int TABLE { V(Vcc, Out) } 
+ ( (0.0199,1) (0.020,0) )
R_R18         GND_Int Out  800k  
E_Logic_E5         $N_0037 GND_Int VALUE 
+ {V($N_0035,GND_Int)+V($N_0036,GND_Int)}
E_Logic_E2         $N_0038 GND_Int TABLE { V($N_0037, GND_Int) } 
+ ( (0.5,0) (0.9,4.8) )
E_Logic_E1         $N_0035 GND_Int VALUE { V(Logic_IN1,
+  GND_Int)*V(Logic_Tj1)+V(Logic_OpL_Off)*(1-V(Logic_IN1)) }
R_Logic_R2         GND_Int Logic_IN1  10000k  
R_Logic_R6         GND_Int Logic_OpL_On  10000k  
R_Logic_R5         GND_Int Logic_S_C  10000k  
E_Logic_E3         $N_0039 GND_Int VALUE { (V($N_0040,
+  GND_Int)*V(Logic_IN1)*(1-V(Logic_Tj1))) }
E_Logic_E4         $N_0036 GND_Int VALUE { V(Logic_S_C,
+  GND_Int)*V(Logic_IN1)+V(Logic_OpL_On)*V(Logic_IN1) }
R_Logic_R1         GND_Int $N_0040  10000k  