*****************************************************************
* NXP BSS123
*
* Polarity N-Channel
* Ratings 100V/3.500000E+000OHMS/0.15A
*
* Date Created Mon Mar 05 04:58:17 2012
*
*****************************************************************
* Model Generated by Transim Technology
*           Copyright(c) 2004
*         All Rights Reserved
*    UNPUBLISHED LICENSED SOFTWARE
*           www.transim.com
*
* Contains Proprietary Information Which
* is The Property of Transim or it's licensees.
*
* Commercial Use or Resale Restricted by
* Transim License Agreement.
*
*****************************************************************

.SUBCKT BSS123 DRAIN GATE SOURCE

LD DRAIN 5 4e-10
RLD2 DRAIN 5 1.00530964914873
RLD1 5 4 0.0023
LG GATE 1 8.81711084834576e-10
RLG GATE 1 2.21598165336399
LS SOURCE 8 1.28299790790991e-09
RLS2 SOURCE 8 3.22452544164868
RLS1 8 7 0.0548513610286835

RDS 7 4 6000000000 TC=-0.005

RS 6 7 0.0001

RD 3 4 2.88693045715313 TC=0.00257342395122291,6.3265536479489E-06
*initial value of RD=2.40693045715313
RBD 9 4 0.191894916345386 TC=0.00257342395122291,6.3265536479489E-06
DBD 7 9 DBD

M1 3 2 6 6 MINT

RGS 2 6 40000000000
CGS 2 6 1.849e-11
RG 1 2 21.3470486389713

* CGD
C11    11   12   1E-12
V11    11   0   0Vdc
G11    3 2 VALUE { V(13, 0)*I(V11) }
E11    12   0  3 2  1
E12    13   0  TABLE {V(12)}
+ -20	28.42
+ -10	27.7
+ -5	27.07
+ -4	26.89
+ -3	26.5
+ -2	39.6
+ -1	33.7
+ -0.5	27.28
+ -0.2	25.22
+ -0.1	23.9
+ 0	22.185
+ 0.1	19.62
+ 0.2	16.81
+ 0.5	13.47
+ 1	10.63
+ 2	8.66
+ 5	6.31
+ 10	4.8
+ 12	4.46
+ 20	3.59
+ 25	3.27
+ 29.7	3.04



.MODEL MINT NMOS(Vto=2.39 Kp=2.368621e-001 Nfs=2096000000000 Eta=7000
* initial values of Kp=1.268621e-001 Nfs=2760000000000 Eta=0
+ Level=3 L=1e-4 W=1e-4 Gamma=0 Phi=0.6 Is=1e-24
+ Js=0 Pb=0.8 Cj=0 Cjsw=0 Cgso=0 Cgdo=0 Cgbo=0
+ Tox=1e-07 Xj=0
+ U0=600 Vmax=400000)
* initial value of Vmax=1000

.MODEL DBD D(Bv=130 Ibv=1.000000E-005 Rs=1E-6 Is=1.07140255833703e-14
+ N=1 M=0.32 VJ=0.5 Fc=0.5 Cjo=7.01e-12 Tt=1.85e-08)

.ENDS

