* Version 2.0 Copyright © Linear Technology Corp. 10/19/05. All rights reserved.
*
.SUBCKT LT6203 3 2 7 4 6 ;(+IN -IN V+ V- OUT)
XLT6203 3 2 7 4 6 LT6202
.ENDS LT6203
*
* Version 1.66 Copyright ? Linear Technology Corp. 5/14/04. All rights reserved. [Spice2]
* Node List: IN+(3) IN-(2) VCC(7) VEE(4) OUT(6)
.SUBCKT LT6202 3 2 7 4 6
CCM1 173 178 0.000333333
CCM2 172 173 0.000333333
CG1 172 169 1n
CG2 169 178 1n
CG3 170 178 5e-9
CG4 172 170 5e-9
CG5 175 178 1e-10
CG6 172 175 1e-10
CG7 176 178 1e-10
CG8 172 176 1e-10
CIN1 3 2 1.5p
CIN2 0 3 1.8p
CIN3 2 0 1.8p
CPSN 190 0 10p
CPSN1 172 189 0.000333333
CPSN2 189 178 0.000333333
CPSP 192 0 10p
CPSP1 172 191 0.000333333
CPSP2 191 178 0.000333333
CVCC 151 0 1E5
CVEE 152 0 1E5
CVM 186 0 1E5
DIN1 108 7 DIODE
DIN2 103 7 DIODE
DIN3 4 108 DIODE
DIN4 4 103 DIODE
DIN5 103 108 DIODE
DIN6 108 103 DIODE
DVLIM1 188 153 DVLIM
DVLIM2 154 188 DVLIM
DVNF 155 0 DVNOI
DVNFX 156 0 DVNOIX
EICM1 164 0 2 0 1
EICM2 165 0 3 0 1
EILIM1 127 124 188 166 1E5
EILIM2 126 122 188 166 -1E5
EIN1 106 0 105 0 1
EIN2 104 0 103 0 1
EPWR1 142 0 188 166 1E5
EPWR2 143 0 188 166 1E5
ESRLIM1 148 150 103 105 0
ESRLIM2 147 149 105 103 0
ESRLIM3 147 145 168 167 598.577
ESRLIM4 148 146 167 168 598.577
EVCC 172 0 151 0 1
EVEE 178 0 152 0 1
EVNOI1 107 108 0 157 1
EVNOI2 109 107 155 156 1
FVLIM1 188 0 VVLIM1 -1E7
FVLIM2 188 0 VVLIM2 1E7
GBIAS1 105 0 129 0 1E-9
GBIAS2 103 0 129 0 1E-9
GBIAS3 105 0 130 0 1E-9
GBIAS4 103 0 130 0 1E-9
GCM1 172 174 181 186 0.000446684
GCM2 178 174 181 186 0.000446684
GCM3 178 173 174 186 6.2832
GCM4 172 173 174 186 6.2832
GCMO1 178 170 173 178 6.2832
GCMO2 170 172 172 173 6.2832
GG1 172 169 168 167 0.376098
GG2 178 169 168 167 0.376098
GG3 178 170 169 186 10
GG4 172 170 169 186 10
GG5 178 175 170 186 6.2832
GG6 172 175 170 186 6.2832
GG7 178 176 175 186 6.2832
GG8 172 176 175 186 6.2832
GILIM 169 0 133 0 0.01
GINOI1 103 0 0 134 1m
GINOI2 110 0 0 135 1m
GOUT1 188 172 172 180 0.01
GOUT2 178 188 180 178 0.01
GPSN1 172 190 4 178 0.00501187
GPSN2 178 190 4 178 0.00501187
GPSN3 172 189 190 186 6.2832
GPSN4 178 189 190 186 6.2832
GPSNO1 188 172 172 189 0.01
GPSNO2 178 188 189 178 0.01
GPSP1 172 192 7 172 0.00630957
GPSP2 178 192 7 172 0.00630957
GPSP3 172 191 192 186 6.2832
GPSP4 178 191 192 186 6.2832
GPSPO1 188 172 172 191 0.01
GPSPO2 178 188 191 178 0.01
GPWR1 140 0 188 166 100
GPWR2 141 0 188 166 100
GSHD3 4 7 121 0 1
GZP1 178 179 176 186 0.1
GZP2 172 179 176 186 0.1
GZP3 178 180 179 186 0.1
GZP4 172 180 179 186 0.1
HIN1 113 167 VIN1 100
HIN2 118 168 VIN2 100
HIN3 116 117 VIN3 100
HIN4 112 115 VIN4 100
IBIAS1 105 0 -1.75e-6
IBIAS2 103 0 -1.75e-6
IDUM1 157 0 0
IDUM2 135 134 0
IPWR 7 4 0.0025
ISLEW 111 0 10mA
IVNF 0 155 1A
IVNFX 0 156 1A
LCM1 172 131 0.00198944
LCM2 132 178 0.00198944
LCMX 128 174 100
LPSN1 172 136 0.00198944
LPSN2 137 178 0.00198944
LPSP1 172 138 0.00198944
LPSP2 139 178 0.00198944
LZP1 172 158 2.85663e-9
LZP2 159 178 2.85663e-9
LZP3 172 160 1.59314e-13
LZP4 161 178 1.59314e-13
Q1 167 106 116 0 NPN1
Q2 168 104 112 0 NPN1
RBIAS1 129 0 1
RBIAS2 130 0 1
RCM1 131 174 1k
RCM2 174 132 1k
RCM3 173 178 0.159155
RCM4 172 173 0.159155
RCMX 128 0 0.1
RG1 172 169 53051.7
RG2 169 178 53051.7
RG3 170 178 0.159155
RG4 172 170 0.159155
RG5 175 178 0.159155
RG6 172 175 0.159155
RG7 176 178 0.159155
RG8 172 176 0.159155
RICM1 164 181 1k
RICM2 165 181 1k
RILIM 133 0 1
RIN1 108 3 0.1
RIN2 103 2 0.1
RINOI1 134 0 60.3865
RINOI2 135 0 60.3865
ROUT1 172 188 100
ROUT2 188 178 100
ROUT3 187 166 0.01
RPSN1 136 190 1k
RPSN2 190 137 1k
RPSN3 172 189 0.159155
RPSN4 189 178 0.159155
RPSP1 138 192 1k
RPSP2 192 139 1k
RPSP3 172 191 0.159155
RPSP4 191 178 0.159155
RPWR1 140 172 1E6
RPWR2 141 178 1E6
RSENSE 166 188 0.01
RSHD1 121 0 1
RVCC 151 7 100
RVEE 152 4 100
RVH1 172 186 1k
RVH2 186 178 1k
RVNOI 0 157 241.346
RZP1 179 159 10
RZP2 158 179 10
RZP3 172 158 11.6666
RZP4 159 178 11.6666
RZP5 180 161 10
RZP6 160 180 10
RZP7 172 160 0.01001
RZP8 161 178 0.01001
SHD2 144 121 7 4 SHDN2X
SHD8 163 6 7 4 SHDNO2
SILIM1 133 125 124 0 SILIM
SILIM2 133 123 122 0 SILIM
SPWR1 7 140 142 0 SPWR
SPWR2 4 141 143 0 SPWRX
SSRLIM1 167 168 145 0 SSRLIM
SSRLIM2 167 168 146 0 SSRLIM
SWB1 129 119 181 178 SBIAS
SWB2 130 120 172 181 SBIAS2X
VBIAS1 119 0 1746.5
VBIAS2 120 0 3250
VILIM1 127 0 40
VILIM2 126 0 40
VILIM3 125 0 10000
VILIM4 123 0 -10000
VIN1 114 113 0
VIN2 114 118 0
VIN3 117 111 0
VIN4 115 111 0
VINPUT 114 0 100
VNF 109 110 83.3788uV
VOS 105 110 0.5m
VSHD7 163 187 0
VSHDN 144 0 0.002499
VSRLIM1 149 0 20
VSRLIM2 150 0 20
VVLIM1 172 153 1.1735
VVLIM2 154 178 1.1735
.MODEL NPN1 NPN(BF=1E11 BR=1E11 AF=0 KF=0 XTI=0 CJC=1f CJE=1f CJS=1f )
.MODEL SHDN VSWITCH(ROFF=1E7 RON=0.001 VON=1.80V VOFF=2.00V)
.MODEL SHDNX VSWITCH(ROFF=1E7 RON=0.001 VON=2.00V VOFF=1.80V)
.MODEL SHDNO VSWITCH(ROFF=1000000.00 RON=0.001 VON=1.80V VOFF=2.00V)
.MODEL SHDNO2 VSWITCH(ROFF=1000000.00 RON=0.001 VON=1.10V VOFF=0.90V)
.MODEL SHDNOX VSWITCH(ROFF=1000000.00 RON=0.001 VON=2.00V VOFF=1.80V)
.MODEL SHDN2 VSWITCH(ROFF=1E7 RON=0.001 VON=1.10V VOFF=0.90V)
.MODEL SHDN2X VSWITCH(ROFF=1E7 RON=0.001 VON=0.90V VOFF=1.10V)
.MODEL SBIAS VSWITCH(ROFF=1E7 RON=0.001 VON=1.00V VOFF=1.20V)
.MODEL SBIAS2 VSWITCH(ROFF=1E7 RON=0.001 VON=1.20V VOFF=1.00V)
.MODEL SBIASX VSWITCH(ROFF=1E7 RON=0.001 VON=1.20V VOFF=1.00V)
.MODEL SBIAS2X VSWITCH(ROFF=1E7 RON=0.001 VON=1.00V VOFF=1.20V)
.MODEL SSRLIM VSWITCH(ROFF=1E7 RON=0.01 VON=-0.1 VOFF=0.5)
.MODEL SILIM VSWITCH(ROFF=1E7 RON=0.001 VON=-3V VOFF=0.4V)
.MODEL SPWR VSWITCH(ROFF=1G RON=0.1 VON=12V VOFF=-12V)
.MODEL SPWRX VSWITCH(ROFF=1G RON=0.1 VON=-12V VOFF=12V)
.MODEL DIODE D(KF=0 RS=0)
.MODEL DVLIM D(IS=1E-24 KF=0 RS=0 XTI=0)
.MODEL DVNOIX D(KF=0 RS=0)
.MODEL DIDEAL D(KF=0 RS=0 XTI=0)
.MODEL DVNOI D(RS=0 KF= 1.19423e-11)
.ENDS LT6202
