*****************************************************************
* NXP 2N7002K
*
* Polarity N-Channel
* Ratings 60V/3.90E+00OHMS/0.5A
*
* Date Created Wed Jul 30 02:51:45 2008
*
*****************************************************************
* Model Generated by Transim Technology
*           Copyright(c) 2004
*         All Rights Reserved
*    UNPUBLISHED LICENSED SOFTWARE
*           www.transim.com
*
* Contains Proprietary Information Which
* is The Property of Transim or it's licensees.
*
* Commercial Use or Resale Restricted by
* Transim License Agreement.
*
*****************************************************************

.SUBCKT 2N7002K DRAIN GATE SOURCE

LD DRAIN 5 4e-10
RLD2 DRAIN 5 1.0053088
RLD1 5 4 0.0023
LG GATE 1 7.81292696075128e-10
RLG GATE 1 1.96360105685013
LS SOURCE 8 8.82775890822787e-10
RLS2 SOURCE 8 2.21865592867997
RLS1 8 7 0.0243090159873389

RDS 7 4 1200000000 TC=-0.05

RS 6 7 0.0001

RD 3 4 2.60045593548604 TC=0.00249518871298279,4.71601699211914e-05
RBD 9 4 0.283138231637483 TC=0.00249518871298279,4.71601699211914e-05
DBD 7 9 DBD

M1 3 2 6 6 MINT

RGS 2 6 750000000000
CGS 2 6 3.18985456148083e-11
RG 1 2 1.49060161358437

* CGD
C11    11   12   1E-12
V11    11   0   0Vdc
G11    3 2 VALUE { V(13, 0)*I(V11) }
E11    12   0  3 2  1
E12    13   0  TABLE {V(12)}
+ -30	24.9
+ -20	24.9
+ -10	24.9
+ -5	23
+ -2	17
+ -1	14
+ -0.5	13
+ -0.2	12
+ -0.1	12
+ 0	12
+ 0.1	11
+ 0.2	11
+ 0.5	9
+ 1	7
+ 2	6
+ 5	5
+ 10	4
+ 20	3
+ 30	3



.MODEL MINT NMOS(Vto=2.15 Kp=0.245 Nfs=3200e+09 Eta=0
+ Level=3 L=1e-4 W=1e-4 Gamma=0 Phi=0.6 Is=1e-24
+ Js=0 Pb=0.8 Cj=0 Cjsw=0 Cgso=0 Cgdo=0 Cgbo=0
+ Tox=1e-07 Xj=0  
+ U0=600 Vmax=1000)

.MODEL DBD D(Bv=67.20 Ibv=2.50E-04 Rs=1E-6 Is=8.72210312176728e-15
+ N=1 M=0.26 VJ=0.96 Fc=0.5 Cjo=8e-12 Tt=1.5e-08)

.ENDS
