.model 2n3906 PNP (Is=1.41f Xti=3 Eg=1.11 Vaf=18.7 Bf=180.7 Ne=1.5 Ise=0 Ikf=80m Xtb=1.5 Br=4.977 Nc=2 Isc=0 Ikr=0 Rc=2.5 Cjc=9.728p Mjc=.5776 Vjc=.75 Fc=.5 Cje=8.063p Mje=.3677 Vje=.75 Tr=33.42n Tf=179.3p Itf=.4 Vtf=4 Xtf=6 Rb=10)
.Model BC327-40 pnp(is=3.69e-14 bf=400 nf=1 vaf=120 ikf=1 ise=467f ne=2 br=4 nr=1 var=20 ikr=1.5 rb=2.25 re=.563 rc=.225 cje=104p tf=722p cjc=46.8p tr=161n xtb=1.5 )
.Model BC327-25 pnp(is=3.69e-14 bf=250 nf=1 vaf=120 ikf=1 ise=467f ne=2 br=4 nr=1 var=20 ikr=1.5 rb=2.25 re=.563 rc=.225 cje=104p tf=722p cjc=46.8p tr=161n xtb=1.5 )
.Model BC327-16 pnp(is=3.69e-14 bf=160 nf=1 vaf=120 ikf=1 ise=467f ne=2 br=4 nr=1 var=20 ikr=1.5 rb=2.25 re=.563 rc=.225 cje=104p tf=722p cjc=46.8p tr=161n xtb=1.5 )

